# svn $Id: Module.mk 1710 2017-01-24 21:17:37Z arango $
#::::::::::::::::::::::::::::::::::::::::::::::::::::: Hernan G. Arango :::
# Copyright (c) 2002-2017 The ROMS/TOMS Group             Kate Hedstrom :::
#   Licensed under a MIT/X style license                                :::
#   See License_ROMS.txt                                                :::
#::::::::::::::::::::::::::::::::::::::::::::::::::::::::::::::::::::::::::

local_sub  := ROMS/Programs

local_src  := $(wildcard $(local_sub)/*.F)
path_srcs  += $(local_src)
