ROMS/TOMS Framework: Oct 24, 2019
===================

Copyright (c) 2002-2019 The ROMS/TOMS Group
  Licensed under a MIT/X style license
  See License_ROMS.txt

svn: $HeadURL: https://www.myroms.org/svn/omlab/branches/arango/ROMS/Version $
svn: $LastChangedBy: arango $
svn: $LastChangedRevision: 1812 $
svn: $LastChangedDate: 2019-10-24 16:11:09 -1000 (Thu, 24 Oct 2019) $
