ROMS/TOMS Framework: March 20, 2018
===================

Copyright (c) 2002-2018 The ROMS/TOMS Group
  Licensed under a MIT/X style license
  See License_ROMS.txt

svn: $HeadURL: https://www.myroms.org/svn/omlab/branches/arango/ROMS/Version $
svn: $LastChangedBy: arango $
svn: $LastChangedRevision: 1754 $
svn: $LastChangedDate: 2018-03-20 17:22:15 -1000 (Tue, 20 Mar 2018) $