ROMS/TOMS Framework: Apr 18, 2013
===================

Copyright (c) 2002-2013 The ROMS/TOMS Group
  Licensed under a MIT/X style license
  See License_ROMS.txt

svn: $HeadURL: https://www.myroms.org/svn/src/tags/roms-3.6/ROMS/Version $
svn: $LastChangedBy: arango $
svn: $LastChangedRevision: 656 $
svn: $LastChangedDate: 2013-04-18 06:23:13 -1000 (Thu, 18 Apr 2013) $
