ROMS/TOMS Framework: November 15, 2017
===================

Copyright (c) 2002-2017 The ROMS/TOMS Group
  Licensed under a MIT/X style license
  See License_ROMS.txt

svn: $HeadURL: https://www.myroms.org/svn/omlab/branches/arango/ROMS/Version $
svn: $LastChangedBy: arango $
svn: $LastChangedRevision: 1740 $
svn: $LastChangedDate: 2017-11-15 09:01:32 -1000 (Wed, 15 Nov 2017) $