ROMS/TOMS Framework: December 27, 2017
===================

Copyright (c) 2002-2017 The ROMS/TOMS Group
  Licensed under a MIT/X style license
  See License_ROMS.txt

svn: $HeadURL: https://www.myroms.org/svn/omlab/branches/arango/ROMS/Version $
svn: $LastChangedBy: arango $
svn: $LastChangedRevision: 1744 $
svn: $LastChangedDate: 2017-12-27 13:17:05 -1000 (Wed, 27 Dec 2017) $