ROMS/TOMS Framework: May 12, 2020
===================

Copyright (c) 2002-2020 The ROMS/TOMS Group
  Licensed under a MIT/X style license
  See License_ROMS.txt

svn: $HeadURL: https://www.myroms.org/svn/omlab/branches/arango/ROMS/Version $
svn: $LastChangedBy: arango $
svn: $LastChangedRevision: 1838 $
svn: $LastChangedDate: 2020-05-12 17:00:46 -1000 (Tue, 12 May 2020) $

