ROMS/TOMS Framework: July 7, 2018
===================

Copyright (c) 2002-2018 The ROMS/TOMS Group
  Licensed under a MIT/X style license
  See License_ROMS.txt

svn: $HeadURL: https://www.myroms.org/svn/omlab/branches/arango/ROMS/Version $
svn: $LastChangedBy: arango $
svn: $LastChangedRevision: 1765 $
svn: $LastChangedDate: 2018-07-07 10:57:22 -1000 (Sat, 07 Jul 2018) $