ROMS/TOMS Framework: Aug 8, 2019
===================

Copyright (c) 2002-2019 The ROMS/TOMS Group
  Licensed under a MIT/X style license
  See License_ROMS.txt

svn: $HeadURL: https://www.myroms.org/svn/omlab/branches/arango/ROMS/Version $
svn: $LastChangedBy: arango $
svn: $LastChangedRevision: 1809 $
svn: $LastChangedDate: 2019-08-08 09:58:21 -1000 (Thu, 08 Aug 2019) $
