ROMS/TOMS Framework: January 22, 2019
===================

Copyright (c) 2002-2019 The ROMS/TOMS Group
  Licensed under a MIT/X style license
  See License_ROMS.txt

svn: $HeadURL: https://www.myroms.org/svn/omlab/branches/arango/ROMS/Version $
svn: $LastChangedBy: arango $
svn: $LastChangedRevision: 1779 $
svn: $LastChangedDate: 2019-01-23 13:25:40 -1000 (Wed, 23 Jan 2019) $
