ROMS/TOMS Framework: May 31, 2020
===================

Copyright (c) 2002-2020 The ROMS/TOMS Group
  Licensed under a MIT/X style license
  See License_ROMS.txt

svn: $HeadURL: https://www.myroms.org/svn/omlab/branches/arango/ROMS/Version $
svn: $LastChangedBy: arango $
svn: $LastChangedRevision: 1843 $
svn: $LastChangedDate: 2020-05-31 14:24:37 -1000 (Sun, 31 May 2020) $

