ROMS/TOMS Framework: February 14, 2018
===================

Copyright (c) 2002-2018 The ROMS/TOMS Group
  Licensed under a MIT/X style license
  See License_ROMS.txt

svn: $HeadURL: https://www.myroms.org/svn/omlab/branches/arango/ROMS/Version $
svn: $LastChangedBy: arango $
svn: $LastChangedRevision: 1753 $
svn: $LastChangedDate: 2018-02-14 08:00:35 -1000 (Wed, 14 Feb 2018) $