ROMS/TOMS Framework: November 26, 2016
===================

Copyright (c) 2002-2016 The ROMS/TOMS Group
  Licensed under a MIT/X style license
  See License_ROMS.txt

svn: $HeadURL: https://www.myroms.org/svn/src/trunk/ROMS/Version $
svn: $LastChangedBy: arango $
svn: $LastChangedRevision: 821 $
svn: $LastChangedDate: 2016-11-26 13:33:02 -1000 (Sat, 26 Nov 2016) $