ROMS/TOMS Framework: Mar 10, 2020
===================

Copyright (c) 2002-2020 The ROMS/TOMS Group
  Licensed under a MIT/X style license
  See License_ROMS.txt

svn: $HeadURL: https://www.myroms.org/svn/omlab/branches/arango/ROMS/Version $
svn: $LastChangedBy: arango $
svn: $LastChangedRevision: 1831 $
svn: $LastChangedDate: 2020-03-10 15:45:22 -1000 (Tue, 10 Mar 2020) $
