ROMS/TOMS Framework: Jul 31, 2019
===================

Copyright (c) 2002-2019 The ROMS/TOMS Group
  Licensed under a MIT/X style license
  See License_ROMS.txt

svn: $HeadURL: https://www.myroms.org/svn/omlab/branches/arango/ROMS/Version $
svn: $LastChangedBy: arango $
svn: $LastChangedRevision: 1808 $
svn: $LastChangedDate: 2019-07-31 05:35:51 -1000 (Wed, 31 Jul 2019) $
