ROMS/TOMS Framework: July 13, 2018
===================

Copyright (c) 2002-2018 The ROMS/TOMS Group
  Licensed under a MIT/X style license
  See License_ROMS.txt

svn: $HeadURL: https://www.myroms.org/svn/omlab/branches/arango/ROMS/Version $
svn: $LastChangedBy: arango $
svn: $LastChangedRevision: 1766 $
svn: $LastChangedDate: 2018-07-13 14:05:51 -1000 (Fri, 13 Jul 2018) $