ROMS/TOMS Framework: Dec 17, 2019
===================

Copyright (c) 2002-2019 The ROMS/TOMS Group
  Licensed under a MIT/X style license
  See License_ROMS.txt

svn: $HeadURL: https://www.myroms.org/svn/omlab/branches/arango/ROMS/Version $
svn: $LastChangedBy: arango $
svn: $LastChangedRevision: 1818 $
svn: $LastChangedDate: 2019-12-17 17:27:30 -1000 (Tue, 17 Dec 2019) $
