ROMS/TOMS Framework: Sep 19, 2019
===================

Copyright (c) 2002-2019 The ROMS/TOMS Group
  Licensed under a MIT/X style license
  See License_ROMS.txt

svn: $HeadURL: https://www.myroms.org/svn/omlab/branches/arango/ROMS/Version $
svn: $LastChangedBy: arango $
svn: $LastChangedRevision: 1810 $
svn: $LastChangedDate: 2019-09-19 17:32:46 -1000 (Thu, 19 Sep 2019) $
