ROMS/TOMS Framework: November 27, 2016
===================

Copyright (c) 2002-2016 The ROMS/TOMS Group
  Licensed under a MIT/X style license
  See License_ROMS.txt

svn: $HeadURL: https://www.myroms.org/svn/src/trunk/ROMS/Version $
svn: $LastChangedBy: arango $
svn: $LastChangedRevision: 823 $
svn: $LastChangedDate: 2016-11-28 16:28:51 -1000 (Mon, 28 Nov 2016) $