ROMS/TOMS Framework: November 18, 2020
===================

Copyright (c) 2002-2020 The ROMS/TOMS Group
  Licensed under a MIT/X style license
  See License_ROMS.txt

svn: $HeadURL: https://www.myroms.org/svn/src/trunk/ROMS/Version $
svn: $LastChangedBy: arango $
svn: $LastChangedRevision: 1046 $
svn: $LastChangedDate: 2020-11-18 12:36:52 -1000 (Wed, 18 Nov 2020) $

