ROMS/TOMS Framework: March 12, 2019
===================

Copyright (c) 2002-2019 The ROMS/TOMS Group
  Licensed under a MIT/X style license
  See License_ROMS.txt

svn: $HeadURL: https://www.myroms.org/svn/omlab/branches/arango/ROMS/Version $
svn: $LastChangedBy: arango $
svn: $LastChangedRevision: 1796 $
svn: $LastChangedDate: 2019-03-12 17:02:41 -1000 (Tue, 12 Mar 2019) $
