ROMS/TOMS Framework: Jan 13, 2020
===================

Copyright (c) 2002-2020 The ROMS/TOMS Group
  Licensed under a MIT/X style license
  See License_ROMS.txt

svn: $HeadURL: https://www.myroms.org/svn/omlab/branches/arango/ROMS/Version $
svn: $LastChangedBy: arango $
svn: $LastChangedRevision: 1824 $
svn: $LastChangedDate: 2020-01-13 12:03:33 -1000 (Mon, 13 Jan 2020) $
