ROMS/TOMS Framework: April 27, 2017
===================

Copyright (c) 2002-2017 The ROMS/TOMS Group
  Licensed under a MIT/X style license
  See License_ROMS.txt

svn: $HeadURL: https://www.myroms.org/svn/src/trunk/ROMS/Version $
svn: $LastChangedBy: arango $
svn: $LastChangedRevision: 843 $
svn: $LastChangedDate: 2017-04-27 10:26:57 -1000 (Thu, 27 Apr 2017) $