ROMS/TOMS Framework: December 4, 2020
===================

Copyright (c) 2002-2020 The ROMS/TOMS Group
  Licensed under a MIT/X style license
  See License_ROMS.txt

svn: $HeadURL: https://www.myroms.org/svn/src/trunk/ROMS/Version $
svn: $LastChangedBy: arango $
svn: $LastChangedRevision: 1051 $
svn: $LastChangedDate: 2020-12-04 13:09:05 -1000 (Fri, 04 Dec 2020) $

