ROMS/TOMS Framework: Feb 25, 2020
===================

Copyright (c) 2002-2020 The ROMS/TOMS Group
  Licensed under a MIT/X style license
  See License_ROMS.txt

svn: $HeadURL: https://www.myroms.org/svn/omlab/branches/arango/ROMS/Version $
svn: $LastChangedBy: arango $
svn: $LastChangedRevision: 1827 $
svn: $LastChangedDate: 2020-02-25 12:28:51 -1000 (Tue, 25 Feb 2020) $
